/*--------------------------------*- C++ -*----------------------------------*\
  =========                 |
  \\      /  F ield         | OpenFOAM: The Open Source CFD Toolbox
   \\    /   O peration     | Website:  https://openfoam.org
    \\  /    A nd           | Version:  8
     \\/     M anipulation  |
\*---------------------------------------------------------------------------*/
FoamFile
{
    version     2.0;
    format      ascii;
    class       volScalarField;
    location    "0/shell";
    object      T;
}
// * * * * * * * * * * * * * * * * * * * * * * * * * * * * * * * * * * * * * //

dimensions      [ 0 0 0 1 0 0 0 ];

internalField   uniform 350;

boundaryField
{

    solid_external
    {
        type            zeroGradient;
    }
    
    tube_external
    {
        type            zeroGradient;

    }

    tube_inlet
    {
        type            fixedValue;
        value           350;
    }
    
    tube_outlet
    {
//        type            inletOutlet;
//        value           $internalField;
//        inletValue      $internalField;
        type            zeroGradient;

    }


    tube_to_solid
    {
        type            compressible::turbulentTemperatureCoupledBaffleMixed;
        value           $internalField;
        Tnbr            T;
//        kappaMethod     fluidThermo;        
        kappaMethod     lookup;  
    }
}


// ************************************************************************* //
